Circuit: * C:\Users\JakubMnich\OneDrive\Tech\ZeroCrossDetector\sim.asc

Direct Newton iteration for .op point succeeded.
.step rfb=1e+006
.step rfb=2e+006
.step rfb=1e+007

Date: Fri Dec 02 14:27:43 2022
Total elapsed time: 5.941 seconds.

tnom = 27
temp = 27
method = modified trap
totiter = 323699
traniter = 323691
tranpoints = 130763
accept = 118670
rejected = 12093
matrix size = 17
fillins = 5
solver = Normal
Matrix Compiler1: 1.42 KB object code size  0.3/0.1/[0.1]
Matrix Compiler2: off  [0.1]/0.2/0.1

