Circuit: * C:\Users\JakubMnich\OneDrive\Tech\ZeroCrossDetector\sim.asc

Direct Newton iteration for .op point succeeded.
.step rfb=47000
.step rfb=100000
.step rfb=1e+008

Date: Thu Dec 01 10:54:14 2022
Total elapsed time: 1.210 seconds.

tnom = 27
temp = 27
method = modified trap
totiter = 53356
traniter = 53348
tranpoints = 17045
accept = 11926
rejected = 5119
matrix size = 17
fillins = 5
solver = Normal
Matrix Compiler1: 1.42 KB object code size  0.3/0.1/[0.1]
Matrix Compiler2: 1.51 KB object code size  0.1/0.2/[0.1]

